26
Properties=species:S:1:pos:R:3:forces:R:3 Data=367524 E=-572.7025100413327 energy=-261.04367 pbc="F F F"
N        8.94410244       1.12963998      -7.48703050      15.71205163      93.15647385    -170.68375272
N        9.34875685       3.29111939      -7.63523486       0.02515468     -51.70284620      10.26772485
C        8.93052875       2.26209898      -6.82041151      37.54904532     208.64142520     124.16470620
H        8.74046509       2.45878694      -5.65204305     -29.82496995     -10.13302078     -45.61759595
C        9.32858151       1.48286265      -8.80134166      16.18349108    -388.22502386    -209.71935546
H        9.29467453       0.77927115      -9.71311928      18.49449696      66.07678777     174.78947330
C        9.70609232       2.75396957      -8.89815442    -118.23931472     104.27484375     177.60595435
H       10.07785808       3.25293548      -9.76240163      10.71291809      66.90069046     -31.11807943
C        8.75216257      -0.18803670      -6.90342680     -47.11358018    -161.09446009    -103.62082200
H        9.08066974      -0.90428711      -7.76035125     -32.89736393      73.98354468     154.51068075
H        7.62617048      -0.40918527      -6.71973173     171.43685516      46.58503415       5.58250389
H        9.40199618      -0.24771175      -5.97362078     -95.55356134     -10.48454135     -76.05545703
C        9.30203467       4.65721818      -7.10173466     201.99890198      89.62415106      66.50109319
H        8.42358135       4.70159326      -6.47865878     -33.60645807      -7.04757812      51.27194201
H        9.17673849       5.47871532      -7.82887017       2.68792921     -71.22675018     -48.60177489
C       10.55972983       5.03414059      -6.22203844      42.72059015     -27.22024470     134.91329730
H       10.34293244       5.88567269      -5.56035849     -46.47851126      31.19771112     -36.84674840
H       11.56480281       5.29542936      -6.63096061     -78.83944041     -26.79157318     -76.16426220
H       10.81833359       4.30503103      -5.40788118     -57.07969691     -20.46802324     -79.36982219
O        8.58421080       2.94700325      -4.20630455     -51.83993178     171.41512389     -69.33801552
O        9.22423870       0.87167867      -3.90679647      11.45212839    -218.58913485     -70.39565335
C        9.20062366       2.05434781      -3.57124809     114.03431501      49.54544761      95.97290529
C       10.01367378       2.39952746      -2.27959031    -220.76211247    -132.78889253      63.02111397
H        9.21957583       2.82337667      -1.59673030      72.37875528       8.99624741     -30.11700243
H       10.12077368       1.30388805      -1.88007446     107.24840513     204.32280769     -29.51393503
H       10.81277454       3.16577526      -2.40823747     -10.17206759     -88.76045732      18.33389398
